# generated using pymatgen
data_Li2Si2O5
_symmetry_space_group_name_H-M   'P 1'
_cell_length_a   4.85443200
_cell_length_b   5.72756000
_cell_length_c   14.79370300
_cell_angle_alpha   90.00000000
_cell_angle_beta   90.00000000
_cell_angle_gamma   90.00000000
_symmetry_Int_Tables_number   1
_chemical_formula_structural   Li2Si2O5
_chemical_formula_sum   'Li8 Si8 O20'
_cell_volume   411.32486597
_cell_formula_units_Z   4
loop_
 _symmetry_equiv_pos_site_id
 _symmetry_equiv_pos_as_xyz
  1  'x, y, z'
loop_
 _atom_site_type_symbol
 _atom_site_label
 _atom_site_symmetry_multiplicity
 _atom_site_fract_x
 _atom_site_fract_y
 _atom_site_fract_z
 _atom_site_occupancy
  Li  Li0  1  0.80922800  0.09879300  0.94864100  1
  Li  Li1  1  0.69077200  0.40120700  0.44864100  1
  Li  Li2  1  0.69077200  0.59879300  0.05135900  1
  Li  Li3  1  0.80922800  0.90120700  0.55135900  1
  Li  Li4  1  0.19077200  0.90120700  0.05135900  1
  Li  Li5  1  0.30922800  0.59879300  0.55135900  1
  Li  Li6  1  0.30922800  0.40120700  0.94864100  1
  Li  Li7  1  0.19077200  0.09879300  0.44864100  1
  Si  Si8  1  0.80582600  0.59408700  0.85177700  1
  Si  Si9  1  0.69417400  0.90591300  0.35177700  1
  Si  Si10  1  0.69417400  0.09408700  0.14822300  1
  Si  Si11  1  0.80582600  0.40591300  0.64822300  1
  Si  Si12  1  0.19417400  0.40591300  0.14822300  1
  Si  Si13  1  0.30582600  0.09408700  0.64822300  1
  Si  Si14  1  0.30582600  0.90591300  0.85177700  1
  Si  Si15  1  0.19417400  0.59408700  0.35177700  1
  O  O16  1  0.74384600  0.50000000  0.75000000  1
  O  O17  1  0.75615400  0.00000000  0.25000000  1
  O  O18  1  0.25615400  0.50000000  0.25000000  1
  O  O19  1  0.24384600  0.00000000  0.75000000  1
  O  O20  1  0.71063700  0.42389100  0.93164800  1
  O  O21  1  0.78936300  0.07610900  0.43164800  1
  O  O22  1  0.78936300  0.92389100  0.06835200  1
  O  O23  1  0.71063700  0.57610900  0.56835200  1
  O  O24  1  0.28936300  0.57610900  0.06835200  1
  O  O25  1  0.21063700  0.92389100  0.56835200  1
  O  O26  1  0.21063700  0.07610900  0.93164800  1
  O  O27  1  0.28936300  0.42389100  0.43164800  1
  O  O28  1  0.64109100  0.84942900  0.86136400  1
  O  O29  1  0.85890900  0.65057100  0.36136400  1
  O  O30  1  0.85890900  0.34942900  0.13863600  1
  O  O31  1  0.64109100  0.15057100  0.63863600  1
  O  O32  1  0.35890900  0.15057100  0.13863600  1
  O  O33  1  0.14109100  0.34942900  0.63863600  1
  O  O34  1  0.14109100  0.65057100  0.86136400  1
  O  O35  1  0.35890900  0.84942900  0.36136400  1
