# generated using pymatgen
data_Cu
_symmetry_space_group_name_H-M   'P 1'
_cell_length_a   2.55767700
_cell_length_b   2.55767789
_cell_length_c   37.59002800
_cell_angle_alpha   90.00000000
_cell_angle_beta   90.00000000
_cell_angle_gamma   120.00000137
_symmetry_Int_Tables_number   1
_chemical_formula_structural   Cu
_chemical_formula_sum   Cu9
_cell_volume   212.95842335
_cell_formula_units_Z   9
loop_
 _symmetry_equiv_pos_site_id
 _symmetry_equiv_pos_as_xyz
  1  'x, y, z'
loop_
 _atom_site_type_symbol
 _atom_site_label
 _atom_site_symmetry_multiplicity
 _atom_site_fract_x
 _atom_site_fract_y
 _atom_site_fract_z
 _atom_site_occupancy
  Cu  Cu1  1  0.666667  0.333333  0.333144  1
  Cu  Cu2  1  0.333333  0.666667  0.277675  1
  Cu  Cu3  1  -0.000000  -0.000000  0.388697  1
  Cu  Cu4  1  0.666667  0.333333  0.500000  1
  Cu  Cu5  1  0.333333  0.666667  0.444307  1
  Cu  Cu6  1  -0.000000  -0.000000  0.555693  1
  Cu  Cu7  1  0.666667  0.333333  0.666856  1
  Cu  Cu8  1  0.333333  0.666667  0.611303  1
  Cu  Cu9  1  0.000000  -0.000000  0.722325  1
