# generated using pymatgen
data_Ni
_symmetry_space_group_name_H-M   'P 1'
_cell_length_a   2.47978671
_cell_length_b   2.47978671
_cell_length_c   24.29465569
_cell_angle_alpha   90.00000000
_cell_angle_beta   90.00000000
_cell_angle_gamma   120.00000000
_symmetry_Int_Tables_number   1
_chemical_formula_structural   Ni
_chemical_formula_sum   Ni6
_cell_volume   129.38086106
_cell_formula_units_Z   6
loop_
 _symmetry_equiv_pos_site_id
 _symmetry_equiv_pos_as_xyz
  1  'x, y, z'
loop_
 _atom_site_type_symbol
 _atom_site_label
 _atom_site_symmetry_multiplicity
 _atom_site_fract_x
 _atom_site_fract_y
 _atom_site_fract_z
 _atom_site_occupancy
  Ni  Ni1  1  0.333334  0.666668  0.082544  1
  Ni  Ni2  1  0.000000  0.000000  0.999689  1
  Ni  Ni3  1  0.666666  0.333332  0.166332  1
  Ni  Ni4  1  0.333334  0.666668  0.334122  1
  Ni  Ni5  1  0.000000  0.000000  0.250335  1
  Ni  Ni6  1  0.666666  0.333332  0.416978  1
