# generated using pymatgen
data_C
_symmetry_space_group_name_H-M   'P 1'
_cell_length_a   14.29570032
_cell_length_b   14.29570032
_cell_length_c   14.29570032
_cell_angle_alpha   90.00000000
_cell_angle_beta   90.00000000
_cell_angle_gamma   90.00000000
_symmetry_Int_Tables_number   1
_chemical_formula_structural   C
_chemical_formula_sum   C240
_cell_volume   2921.57006833
_cell_formula_units_Z   240
loop_
 _symmetry_equiv_pos_site_id
 _symmetry_equiv_pos_as_xyz
  1  'x, y, z'
loop_
 _atom_site_type_symbol
 _atom_site_label
 _atom_site_symmetry_multiplicity
 _atom_site_fract_x
 _atom_site_fract_y
 _atom_site_fract_z
 _atom_site_occupancy
  C  C0  1  0.39962950  0.72499286  0.96753401  1
  C  C1  1  0.60037050  0.22499286  0.53246599  1
  C  C2  1  0.10037050  0.27500714  0.46753401  1
  C  C3  1  0.89962950  0.77500714  0.03246599  1
  C  C4  1  0.96753401  0.39962950  0.72499286  1
  C  C5  1  0.53246599  0.60037050  0.22499286  1
  C  C6  1  0.46753401  0.10037050  0.27500714  1
  C  C7  1  0.03246599  0.89962950  0.77500714  1
  C  C8  1  0.72499286  0.96753401  0.39962950  1
  C  C9  1  0.22499286  0.53246599  0.60037050  1
  C  C10  1  0.27500714  0.46753401  0.10037050  1
  C  C11  1  0.77500714  0.03246599  0.89962950  1
  C  C12  1  0.60037050  0.27500714  0.03246599  1
  C  C13  1  0.39962950  0.77500714  0.46753401  1
  C  C14  1  0.89962950  0.72499286  0.53246599  1
  C  C15  1  0.10037050  0.22499286  0.96753401  1
  C  C16  1  0.03246599  0.60037050  0.27500714  1
  C  C17  1  0.46753401  0.39962950  0.77500714  1
  C  C18  1  0.53246599  0.89962950  0.72499286  1
  C  C19  1  0.96753401  0.10037050  0.22499286  1
  C  C20  1  0.27500714  0.03246599  0.60037050  1
  C  C21  1  0.77500714  0.46753401  0.39962950  1
  C  C22  1  0.72499286  0.53246599  0.89962950  1
  C  C23  1  0.22499286  0.96753401  0.10037050  1
  C  C24  1  0.49360969  0.74223304  0.94605175  1
  C  C25  1  0.50639031  0.24223304  0.55394825  1
  C  C26  1  0.00639031  0.25776696  0.44605175  1
  C  C27  1  0.99360969  0.75776696  0.05394825  1
  C  C28  1  0.94605175  0.49360969  0.74223304  1
  C  C29  1  0.55394825  0.50639031  0.24223304  1
  C  C30  1  0.44605175  0.00639031  0.25776696  1
  C  C31  1  0.05394825  0.99360969  0.75776696  1
  C  C32  1  0.74223304  0.94605175  0.49360969  1
  C  C33  1  0.24223304  0.55394825  0.50639031  1
  C  C34  1  0.25776696  0.44605175  0.00639031  1
  C  C35  1  0.75776696  0.05394825  0.99360969  1
  C  C36  1  0.50639031  0.25776696  0.05394825  1
  C  C37  1  0.49360969  0.75776696  0.44605175  1
  C  C38  1  0.99360969  0.74223304  0.55394825  1
  C  C39  1  0.00639031  0.24223304  0.94605175  1
  C  C40  1  0.05394825  0.50639031  0.25776696  1
  C  C41  1  0.44605175  0.49360969  0.75776696  1
  C  C42  1  0.55394825  0.99360969  0.74223304  1
  C  C43  1  0.94605175  0.00639031  0.24223304  1
  C  C44  1  0.25776696  0.05394825  0.50639031  1
  C  C45  1  0.75776696  0.44605175  0.49360969  1
  C  C46  1  0.74223304  0.55394825  0.99360969  1
  C  C47  1  0.24223304  0.94605175  0.00639031  1
  C  C48  1  0.37216418  0.70406165  0.06313741  1
  C  C49  1  0.62783582  0.20406165  0.43686259  1
  C  C50  1  0.12783582  0.29593835  0.56313741  1
  C  C51  1  0.87216418  0.79593835  0.93686259  1
  C  C52  1  0.06313741  0.37216418  0.70406165  1
  C  C53  1  0.43686259  0.62783582  0.20406165  1
  C  C54  1  0.56313741  0.12783582  0.29593835  1
  C  C55  1  0.93686259  0.87216418  0.79593835  1
  C  C56  1  0.70406165  0.06313741  0.37216418  1
  C  C57  1  0.20406165  0.43686259  0.62783582  1
  C  C58  1  0.29593835  0.56313741  0.12783582  1
  C  C59  1  0.79593835  0.93686259  0.87216418  1
  C  C60  1  0.62783582  0.29593835  0.93686259  1
  C  C61  1  0.37216418  0.79593835  0.56313741  1
  C  C62  1  0.87216418  0.70406165  0.43686259  1
  C  C63  1  0.12783582  0.20406165  0.06313741  1
  C  C64  1  0.93686259  0.62783582  0.29593835  1
  C  C65  1  0.56313741  0.37216418  0.79593835  1
  C  C66  1  0.43686259  0.87216418  0.70406165  1
  C  C67  1  0.06313741  0.12783582  0.20406165  1
  C  C68  1  0.29593835  0.93686259  0.62783582  1
  C  C69  1  0.79593835  0.56313741  0.37216418  1
  C  C70  1  0.70406165  0.43686259  0.87216418  1
  C  C71  1  0.20406165  0.06313741  0.12783582  1
  C  C72  1  0.53481247  0.70311737  0.86160910  1
  C  C73  1  0.46518753  0.20311737  0.63839090  1
  C  C74  1  0.96518753  0.29688263  0.36160910  1
  C  C75  1  0.03481247  0.79688263  0.13839090  1
  C  C76  1  0.86160910  0.53481247  0.70311737  1
  C  C77  1  0.63839090  0.46518753  0.20311737  1
  C  C78  1  0.36160910  0.96518753  0.29688263  1
  C  C79  1  0.13839090  0.03481247  0.79688263  1
  C  C80  1  0.70311737  0.86160910  0.53481247  1
  C  C81  1  0.20311737  0.63839090  0.46518753  1
  C  C82  1  0.29688263  0.36160910  0.96518753  1
  C  C83  1  0.79688263  0.13839090  0.03481247  1
  C  C84  1  0.46518753  0.29688263  0.13839090  1
  C  C85  1  0.53481247  0.79688263  0.36160910  1
  C  C86  1  0.03481247  0.70311737  0.63839090  1
  C  C87  1  0.96518753  0.20311737  0.86160910  1
  C  C88  1  0.13839090  0.46518753  0.29688263  1
  C  C89  1  0.36160910  0.53481247  0.79688263  1
  C  C90  1  0.63839090  0.03481247  0.70311737  1
  C  C91  1  0.86160910  0.96518753  0.20311737  1
  C  C92  1  0.29688263  0.13839090  0.46518753  1
  C  C93  1  0.79688263  0.36160910  0.53481247  1
  C  C94  1  0.70311737  0.63839090  0.03481247  1
  C  C95  1  0.20311737  0.86160910  0.96518753  1
  C  C96  1  0.34297408  0.66792864  0.90532349  1
  C  C97  1  0.65702592  0.16792864  0.59467651  1
  C  C98  1  0.15702592  0.33207136  0.40532349  1
  C  C99  1  0.84297408  0.83207136  0.09467651  1
  C  C100  1  0.90532349  0.34297408  0.66792864  1
  C  C101  1  0.59467651  0.65702592  0.16792864  1
  C  C102  1  0.40532349  0.15702592  0.33207136  1
  C  C103  1  0.09467651  0.84297408  0.83207136  1
  C  C104  1  0.66792864  0.90532349  0.34297408  1
  C  C105  1  0.16792864  0.59467651  0.65702592  1
  C  C106  1  0.33207136  0.40532349  0.15702592  1
  C  C107  1  0.83207136  0.09467651  0.84297408  1
  C  C108  1  0.65702592  0.33207136  0.09467651  1
  C  C109  1  0.34297408  0.83207136  0.40532349  1
  C  C110  1  0.84297408  0.66792864  0.59467651  1
  C  C111  1  0.15702592  0.16792864  0.90532349  1
  C  C112  1  0.09467651  0.65702592  0.33207136  1
  C  C113  1  0.40532349  0.34297408  0.83207136  1
  C  C114  1  0.59467651  0.84297408  0.66792864  1
  C  C115  1  0.90532349  0.15702592  0.16792864  1
  C  C116  1  0.33207136  0.09467651  0.65702592  1
  C  C117  1  0.83207136  0.40532349  0.34297408  1
  C  C118  1  0.66792864  0.59467651  0.84297408  1
  C  C119  1  0.16792864  0.90532349  0.15702592  1
  C  C120  1  0.53744364  0.71952136  0.11146109  1
  C  C121  1  0.46255636  0.21952136  0.38853891  1
  C  C122  1  0.96255636  0.28047864  0.61146109  1
  C  C123  1  0.03744364  0.78047864  0.88853891  1
  C  C124  1  0.11146109  0.53744364  0.71952136  1
  C  C125  1  0.38853891  0.46255636  0.21952136  1
  C  C126  1  0.61146109  0.96255636  0.28047864  1
  C  C127  1  0.88853891  0.03744364  0.78047864  1
  C  C128  1  0.71952136  0.11146109  0.53744364  1
  C  C129  1  0.21952136  0.38853891  0.46255636  1
  C  C130  1  0.28047864  0.61146109  0.96255636  1
  C  C131  1  0.78047864  0.88853891  0.03744364  1
  C  C132  1  0.46255636  0.28047864  0.88853891  1
  C  C133  1  0.53744364  0.78047864  0.61146109  1
  C  C134  1  0.03744364  0.71952136  0.38853891  1
  C  C135  1  0.96255636  0.21952136  0.11146109  1
  C  C136  1  0.88853891  0.46255636  0.28047864  1
  C  C137  1  0.61146109  0.53744364  0.78047864  1
  C  C138  1  0.38853891  0.03744364  0.71952136  1
  C  C139  1  0.11146109  0.96255636  0.21952136  1
  C  C140  1  0.28047864  0.88853891  0.46255636  1
  C  C141  1  0.78047864  0.61146109  0.53744364  1
  C  C142  1  0.71952136  0.38853891  0.03744364  1
  C  C143  1  0.21952136  0.11146109  0.96255636  1
  C  C144  1  0.56382849  0.73969520  0.01925439  1
  C  C145  1  0.43617151  0.23969520  0.48074561  1
  C  C146  1  0.93617151  0.26030480  0.51925439  1
  C  C147  1  0.06382849  0.76030480  0.98074561  1
  C  C148  1  0.01925439  0.56382849  0.73969520  1
  C  C149  1  0.48074561  0.43617151  0.23969520  1
  C  C150  1  0.51925439  0.93617151  0.26030480  1
  C  C151  1  0.98074561  0.06382849  0.76030480  1
  C  C152  1  0.73969520  0.01925439  0.56382849  1
  C  C153  1  0.23969520  0.48074561  0.43617151  1
  C  C154  1  0.26030480  0.51925439  0.93617151  1
  C  C155  1  0.76030480  0.98074561  0.06382849  1
  C  C156  1  0.43617151  0.26030480  0.98074561  1
  C  C157  1  0.56382849  0.76030480  0.51925439  1
  C  C158  1  0.06382849  0.73969520  0.48074561  1
  C  C159  1  0.93617151  0.23969520  0.01925439  1
  C  C160  1  0.98074561  0.43617151  0.26030480  1
  C  C161  1  0.51925439  0.56382849  0.76030480  1
  C  C162  1  0.48074561  0.06382849  0.73969520  1
  C  C163  1  0.01925439  0.93617151  0.23969520  1
  C  C164  1  0.26030480  0.98074561  0.43617151  1
  C  C165  1  0.76030480  0.51925439  0.56382849  1
  C  C166  1  0.73969520  0.48074561  0.06382849  1
  C  C167  1  0.23969520  0.01925439  0.93617151  1
  C  C168  1  0.43991288  0.70131068  0.13382494  1
  C  C169  1  0.56008712  0.20131068  0.36617506  1
  C  C170  1  0.06008712  0.29868932  0.63382494  1
  C  C171  1  0.93991288  0.79868932  0.86617506  1
  C  C172  1  0.13382494  0.43991288  0.70131068  1
  C  C173  1  0.36617506  0.56008712  0.20131068  1
  C  C174  1  0.63382494  0.06008712  0.29868932  1
  C  C175  1  0.86617506  0.93991288  0.79868932  1
  C  C176  1  0.70131068  0.13382494  0.43991288  1
  C  C177  1  0.20131068  0.36617506  0.56008712  1
  C  C178  1  0.29868932  0.63382494  0.06008712  1
  C  C179  1  0.79868932  0.86617506  0.93991288  1
  C  C180  1  0.56008712  0.29868932  0.86617506  1
  C  C181  1  0.43991288  0.79868932  0.63382494  1
  C  C182  1  0.93991288  0.70131068  0.36617506  1
  C  C183  1  0.06008712  0.20131068  0.13382494  1
  C  C184  1  0.86617506  0.56008712  0.29868932  1
  C  C185  1  0.63382494  0.43991288  0.79868932  1
  C  C186  1  0.36617506  0.93991288  0.70131068  1
  C  C187  1  0.13382494  0.06008712  0.20131068  1
  C  C188  1  0.29868932  0.86617506  0.56008712  1
  C  C189  1  0.79868932  0.63382494  0.43991288  1
  C  C190  1  0.70131068  0.36617506  0.93991288  1
  C  C191  1  0.20131068  0.13382494  0.06008712  1
  C  C192  1  0.48022646  0.64818427  0.80162321  1
  C  C193  1  0.51977354  0.14818427  0.69837679  1
  C  C194  1  0.01977354  0.35181573  0.30162321  1
  C  C195  1  0.98022646  0.85181573  0.19837679  1
  C  C196  1  0.80162321  0.48022646  0.64818427  1
  C  C197  1  0.69837679  0.51977354  0.14818427  1
  C  C198  1  0.30162321  0.01977354  0.35181573  1
  C  C199  1  0.19837679  0.98022646  0.85181573  1
  C  C200  1  0.64818427  0.80162321  0.48022646  1
  C  C201  1  0.14818427  0.69837679  0.51977354  1
  C  C202  1  0.35181573  0.30162321  0.01977354  1
  C  C203  1  0.85181573  0.19837679  0.98022646  1
  C  C204  1  0.51977354  0.35181573  0.19837679  1
  C  C205  1  0.48022646  0.85181573  0.30162321  1
  C  C206  1  0.98022646  0.64818427  0.69837679  1
  C  C207  1  0.01977354  0.14818427  0.80162321  1
  C  C208  1  0.19837679  0.51977354  0.35181573  1
  C  C209  1  0.30162321  0.48022646  0.85181573  1
  C  C210  1  0.69837679  0.98022646  0.64818427  1
  C  C211  1  0.80162321  0.01977354  0.14818427  1
  C  C212  1  0.35181573  0.19837679  0.51977354  1
  C  C213  1  0.85181573  0.30162321  0.48022646  1
  C  C214  1  0.64818427  0.69837679  0.98022646  1
  C  C215  1  0.14818427  0.80162321  0.01977354  1
  C  C216  1  0.38269642  0.63023913  0.82396626  1
  C  C217  1  0.61730358  0.13023913  0.67603374  1
  C  C218  1  0.11730358  0.36976087  0.32396626  1
  C  C219  1  0.88269642  0.86976087  0.17603374  1
  C  C220  1  0.82396626  0.38269642  0.63023913  1
  C  C221  1  0.67603374  0.61730358  0.13023913  1
  C  C222  1  0.32396626  0.11730358  0.36976087  1
  C  C223  1  0.17603374  0.88269642  0.86976087  1
  C  C224  1  0.63023913  0.82396626  0.38269642  1
  C  C225  1  0.13023913  0.67603374  0.61730358  1
  C  C226  1  0.36976087  0.32396626  0.11730358  1
  C  C227  1  0.86976087  0.17603374  0.88269642  1
  C  C228  1  0.61730358  0.36976087  0.17603374  1
  C  C229  1  0.38269642  0.86976087  0.32396626  1
  C  C230  1  0.88269642  0.63023913  0.67603374  1
  C  C231  1  0.11730358  0.13023913  0.82396626  1
  C  C232  1  0.17603374  0.61730358  0.36976087  1
  C  C233  1  0.32396626  0.38269642  0.86976087  1
  C  C234  1  0.67603374  0.88269642  0.63023913  1
  C  C235  1  0.82396626  0.11730358  0.13023913  1
  C  C236  1  0.36976087  0.17603374  0.61730358  1
  C  C237  1  0.86976087  0.32396626  0.38269642  1
  C  C238  1  0.63023913  0.67603374  0.88269642  1
  C  C239  1  0.13023913  0.82396626  0.11730358  1
