# generated using pymatgen
data_Ag
_symmetry_space_group_name_H-M   'P 1'
_cell_length_a   2.93890100
_cell_length_b   2.93890081
_cell_length_c   43.19284400
_cell_angle_alpha   90.00000000
_cell_angle_beta   90.00000000
_cell_angle_gamma   119.99999083
_symmetry_Int_Tables_number   1
_chemical_formula_structural   Ag
_chemical_formula_sum   Ag9
_cell_volume   323.08169936
_cell_formula_units_Z   9
loop_
 _symmetry_equiv_pos_site_id
 _symmetry_equiv_pos_as_xyz
  1  'x, y, z'
loop_
 _atom_site_type_symbol
 _atom_site_label
 _atom_site_symmetry_multiplicity
 _atom_site_fract_x
 _atom_site_fract_y
 _atom_site_fract_z
 _atom_site_occupancy
  Ag  Ag1  1  0.666667  0.333333  0.333283  1
  Ag  Ag2  1  0.333333  0.666667  0.277786  1
  Ag  Ag3  1  -0.000000  -0.000000  0.388848  1
  Ag  Ag4  1  0.666667  0.333333  0.500000  1
  Ag  Ag5  1  0.333333  0.666667  0.444457  1
  Ag  Ag6  1  0.000000  0.000000  0.555543  1
  Ag  Ag7  1  0.666667  0.333333  0.666717  1
  Ag  Ag8  1  0.333333  0.666667  0.611152  1
  Ag  Ag9  1  -0.000000  0.000000  0.722214  1
