data_Ben_Pt_07_4x2_away
_audit_creation_date              2021-12-17
_audit_creation_method            'Materials Studio'
_symmetry_space_group_name_H-M    'P1'
_symmetry_Int_Tables_number       1
_symmetry_cell_setting            triclinic
loop_
_symmetry_equiv_pos_as_xyz
  x,y,z
_cell_length_a                    11.0976
_cell_length_b                    9.6108
_cell_length_c                    40.0000
_cell_angle_alpha                 90.0000
_cell_angle_beta                  90.0000
_cell_angle_gamma                 90.0000
loop_
_atom_site_label
_atom_site_type_symbol
_atom_site_fract_x
_atom_site_fract_y
_atom_site_fract_z
_atom_site_U_iso_or_equiv
_atom_site_adp_type
_atom_site_occupancy
Pt1    Pt    0.00000   0.00000   0.00000   0.00000  Uiso   1.00
Pt2    Pt    0.12500   0.25000   0.00000   0.00000  Uiso   1.00
Pt3    Pt   -0.00000   0.16667   0.05663   0.00000  Uiso   1.00
Pt4    Pt    0.12500   0.41667   0.05663   0.00000  Uiso   1.00
Pt5    Pt    0.12500   0.08333   0.11326   0.00000  Uiso   1.00
Pt6    Pt   -0.00000   0.33333   0.11326   0.00000  Uiso   1.00
Pt7    Pt    0.25000  -0.00000   0.00000   0.00000  Uiso   1.00
Pt8    Pt    0.37500   0.25000   0.00000   0.00000  Uiso   1.00
Pt9    Pt    0.25000   0.16667   0.05663   0.00000  Uiso   1.00
Pt10   Pt    0.37500   0.41667   0.05663   0.00000  Uiso   1.00
Pt11   Pt    0.37500   0.08333   0.11326   0.00000  Uiso   1.00
Pt12   Pt    0.25000   0.33333   0.11326   0.00000  Uiso   1.00
Pt13   Pt    0.50000  -0.00000   0.00000   0.00000  Uiso   1.00
Pt14   Pt    0.62500   0.25000   0.00000   0.00000  Uiso   1.00
Pt15   Pt    0.50000   0.16667   0.05663   0.00000  Uiso   1.00
Pt16   Pt    0.62500   0.41667   0.05663   0.00000  Uiso   1.00
Pt17   Pt    0.62500   0.08333   0.11326   0.00000  Uiso   1.00
Pt18   Pt    0.50000   0.33333   0.11326   0.00000  Uiso   1.00
Pt19   Pt    0.75000  -0.00000   0.00000   0.00000  Uiso   1.00
Pt20   Pt    0.87500   0.25000   0.00000   0.00000  Uiso   1.00
Pt21   Pt    0.75000   0.16667   0.05663   0.00000  Uiso   1.00
Pt22   Pt    0.87500   0.41667   0.05663   0.00000  Uiso   1.00
Pt23   Pt    0.87500   0.08333   0.11326   0.00000  Uiso   1.00
Pt24   Pt    0.75000   0.33333   0.11326   0.00000  Uiso   1.00
Pt25   Pt   -0.00000   0.50000   0.00000   0.00000  Uiso   1.00
Pt26   Pt    0.12500   0.75000   0.00000   0.00000  Uiso   1.00
Pt27   Pt   -0.00000   0.66667   0.05663   0.00000  Uiso   1.00
Pt28   Pt    0.12500   0.91667   0.05663   0.00000  Uiso   1.00
Pt29   Pt    0.12500   0.58333   0.11326   0.00000  Uiso   1.00
Pt30   Pt   -0.00000   0.83333   0.11326   0.00000  Uiso   1.00
Pt31   Pt    0.25000   0.50000   0.00000   0.00000  Uiso   1.00
Pt32   Pt    0.37500   0.75000   0.00000   0.00000  Uiso   1.00
Pt33   Pt    0.25000   0.66667   0.05663   0.00000  Uiso   1.00
Pt34   Pt    0.37500   0.91667   0.05663   0.00000  Uiso   1.00
Pt35   Pt    0.37500   0.58333   0.11326   0.00000  Uiso   1.00
Pt36   Pt    0.25000   0.83333   0.11326   0.00000  Uiso   1.00
Pt37   Pt    0.50000   0.50000   0.00000   0.00000  Uiso   1.00
Pt38   Pt    0.62500   0.75000   0.00000   0.00000  Uiso   1.00
Pt39   Pt    0.50000   0.66667   0.05663   0.00000  Uiso   1.00
Pt40   Pt    0.62500   0.91667   0.05663   0.00000  Uiso   1.00
Pt41   Pt    0.62500   0.58333   0.11326   0.00000  Uiso   1.00
Pt42   Pt    0.50000   0.83333   0.11326   0.00000  Uiso   1.00
Pt43   Pt    0.75000   0.50000   0.00000   0.00000  Uiso   1.00
Pt44   Pt    0.87500   0.75000   0.00000   0.00000  Uiso   1.00
Pt45   Pt    0.75000   0.66667   0.05663   0.00000  Uiso   1.00
Pt46   Pt    0.87500   0.91667   0.05663   0.00000  Uiso   1.00
Pt47   Pt    0.87500   0.58333   0.11326   0.00000  Uiso   1.00
Pt48   Pt    0.75000   0.83333   0.11326   0.00000  Uiso   1.00
Pt49   Pt   -0.00000  -0.00000   0.16990   0.00000  Uiso   1.00
Pt50   Pt    0.12500   0.25000   0.16990   0.00000  Uiso   1.00
Pt51   Pt   -0.00000   0.16667   0.22653   0.00000  Uiso   1.00
Pt52   Pt    0.12500   0.41667   0.22653   0.00000  Uiso   1.00
Pt53   Pt    0.12500   0.08333   0.28316   0.00000  Uiso   1.00
Pt54   Pt   -0.00000   0.33333   0.28316   0.00000  Uiso   1.00
Pt55   Pt    0.25000  -0.00000   0.16990   0.00000  Uiso   1.00
Pt56   Pt    0.37500   0.25000   0.16990   0.00000  Uiso   1.00
Pt57   Pt    0.25000   0.16667   0.22653   0.00000  Uiso   1.00
Pt58   Pt    0.37500   0.41667   0.22653   0.00000  Uiso   1.00
Pt59   Pt    0.37500   0.08333   0.28316   0.00000  Uiso   1.00
Pt60   Pt    0.25000   0.33333   0.28316   0.00000  Uiso   1.00
Pt61   Pt    0.50000  -0.00000   0.16990   0.00000  Uiso   1.00
Pt62   Pt    0.62500   0.25000   0.16990   0.00000  Uiso   1.00
Pt63   Pt    0.50000   0.16667   0.22653   0.00000  Uiso   1.00
Pt64   Pt    0.62500   0.41667   0.22653   0.00000  Uiso   1.00
Pt65   Pt    0.62500   0.08333   0.28316   0.00000  Uiso   1.00
Pt66   Pt    0.50000   0.33333   0.28316   0.00000  Uiso   1.00
Pt67   Pt    0.75000  -0.00000   0.16990   0.00000  Uiso   1.00
Pt68   Pt    0.87500   0.25000   0.16990   0.00000  Uiso   1.00
Pt69   Pt    0.75000   0.16667   0.22653   0.00000  Uiso   1.00
Pt70   Pt    0.87500   0.41667   0.22653   0.00000  Uiso   1.00
Pt71   Pt    0.87500   0.08333   0.28316   0.00000  Uiso   1.00
Pt72   Pt    0.75000   0.33333   0.28316   0.00000  Uiso   1.00
Pt73   Pt   -0.00000   0.50000   0.16990   0.00000  Uiso   1.00
Pt74   Pt    0.12500   0.75000   0.16990   0.00000  Uiso   1.00
Pt75   Pt   -0.00000   0.66667   0.22653   0.00000  Uiso   1.00
Pt76   Pt    0.12500   0.91667   0.22653   0.00000  Uiso   1.00
Pt77   Pt    0.12500   0.58333   0.28316   0.00000  Uiso   1.00
Pt78   Pt   -0.00000   0.83333   0.28316   0.00000  Uiso   1.00
Pt79   Pt    0.25000   0.50000   0.16990   0.00000  Uiso   1.00
Pt80   Pt    0.37500   0.75000   0.16990   0.00000  Uiso   1.00
Pt81   Pt    0.25000   0.66667   0.22653   0.00000  Uiso   1.00
Pt82   Pt    0.37500   0.91667   0.22653   0.00000  Uiso   1.00
Pt83   Pt    0.37500   0.58333   0.28316   0.00000  Uiso   1.00
Pt84   Pt    0.25000   0.83333   0.28316   0.00000  Uiso   1.00
Pt85   Pt    0.50000   0.50000   0.16990   0.00000  Uiso   1.00
Pt86   Pt    0.62500   0.75000   0.16990   0.00000  Uiso   1.00
Pt87   Pt    0.50000   0.66667   0.22653   0.00000  Uiso   1.00
Pt88   Pt    0.62500   0.91667   0.22653   0.00000  Uiso   1.00
Pt89   Pt    0.62500   0.58333   0.28316   0.00000  Uiso   1.00
Pt90   Pt    0.50000   0.83333   0.28316   0.00000  Uiso   1.00
Pt91   Pt    0.75000   0.50000   0.16990   0.00000  Uiso   1.00
Pt92   Pt    0.87500   0.75000   0.16990   0.00000  Uiso   1.00
Pt93   Pt    0.75000   0.66667   0.22653   0.00000  Uiso   1.00
Pt94   Pt    0.87500   0.91667   0.22653   0.00000  Uiso   1.00
Pt95   Pt    0.87500   0.58333   0.28316   0.00000  Uiso   1.00
Pt96   Pt    0.75000   0.83333   0.28316   0.00000  Uiso   1.00
H97    H     0.05988   0.91459   0.56668   0.00000  Uiso   1.00
C98    C     0.10937   0.81795   0.56826   0.00000  Uiso   1.00
C99    C     0.23497   0.81915   0.56806   0.00000  Uiso   1.00
C100   C     0.29870   0.69396   0.56832   0.00000  Uiso   1.00
C101   C     0.23663   0.56788   0.56834   0.00000  Uiso   1.00
C102   C     0.11100   0.56686   0.56901   0.00000  Uiso   1.00
C103   C     0.04745   0.69178   0.56917   0.00000  Uiso   1.00
H104   H     0.28566   0.47091   0.56682   0.00000  Uiso   1.00
H105   H     0.28282   0.91679   0.56621   0.00000  Uiso   1.00
H106   H     0.39588   0.69467   0.56662   0.00000  Uiso   1.00
H107   H     0.06283   0.46918   0.56800   0.00000  Uiso   1.00
H108   H    -0.04991   0.69078   0.56824   0.00000  Uiso   1.00
H109   H     0.42938   0.44578   0.56620   0.00000  Uiso   1.00
C110   C     0.51471   0.39206   0.56800   0.00000  Uiso   1.00
C111   C     0.62192   0.46756   0.56884   0.00000  Uiso   1.00
C112   C     0.73225   0.39790   0.56936   0.00000  Uiso   1.00
C113   C     0.73512   0.25295   0.56861   0.00000  Uiso   1.00
C114   C     0.62777   0.17754   0.56824   0.00000  Uiso   1.00
C115   C     0.51767   0.24702   0.56814   0.00000  Uiso   1.00
H116   H     0.82043   0.19897   0.56729   0.00000  Uiso   1.00
H117   H     0.61965   0.57985   0.56759   0.00000  Uiso   1.00
H118   H     0.81542   0.45628   0.56847   0.00000  Uiso   1.00
H119   H     0.62999   0.06529   0.56663   0.00000  Uiso   1.00
H120   H     0.43469   0.18855   0.56640   0.00000  Uiso   1.00
loop_
_geom_bond_atom_site_label_1
_geom_bond_atom_site_label_2
_geom_bond_distance
_geom_bond_site_symmetry_2
_ccdc_geom_bond_type
H97    C98     1.081   .     S
C98    C99     1.394   .     A
C98    C103    1.394   .     A
C99    C100    1.396   .     A
C99    H105    1.081   .     S
C100   C101    1.394   .     A
C100   H106    1.081   .     S
C101   H104    1.081   .     S
C101   C102    1.395   .     A
C102   C103    1.392   .     A
C102   H107    1.081   .     S
C103   H108    1.081   .     S
H109   C110    1.081   .     S
C110   C111    1.394   .     A
C110   C115    1.394   .     A
C111   C112    1.396   .     A
C111   H117    1.081   .     S
C112   C113    1.394   .     A
C112   H118    1.081   .     S
C113   H116    1.081   .     S
C113   C114    1.395   .     A
C114   C115    1.392   .     A
C114   H119    1.081   .     S
C115   H120    1.081   .     S
