data_Ben_Pt_03_away_3x2
_audit_creation_date              2021-12-07
_audit_creation_method            'Materials Studio'
_symmetry_space_group_name_H-M    'P1'
_symmetry_Int_Tables_number       1
_symmetry_cell_setting            triclinic
loop_
_symmetry_equiv_pos_as_xyz
  x,y,z
_cell_length_a                    13.8720
_cell_length_b                    9.6108
_cell_length_c                    40.0000
_cell_angle_alpha                 90.0000
_cell_angle_beta                  90.0000
_cell_angle_gamma                 90.0000
loop_
_atom_site_label
_atom_site_type_symbol
_atom_site_fract_x
_atom_site_fract_y
_atom_site_fract_z
_atom_site_U_iso_or_equiv
_atom_site_adp_type
_atom_site_occupancy
Pt1    Pt    0.00000   0.00000   0.00000   0.00000  Uiso   1.00
Pt2    Pt    0.10000   0.25000   0.00000   0.00000  Uiso   1.00
Pt3    Pt   -0.00000   0.16667   0.05663   0.00000  Uiso   1.00
Pt4    Pt    0.10000   0.41667   0.05663   0.00000  Uiso   1.00
Pt5    Pt    0.10000   0.08333   0.11326   0.00000  Uiso   1.00
Pt6    Pt   -0.00000   0.33333   0.11326   0.00000  Uiso   1.00
Pt7    Pt    0.20000   0.00000   0.00000   0.00000  Uiso   1.00
Pt8    Pt    0.30000   0.25000   0.00000   0.00000  Uiso   1.00
Pt9    Pt    0.20000   0.16667   0.05663   0.00000  Uiso   1.00
Pt10   Pt    0.30000   0.41667   0.05663   0.00000  Uiso   1.00
Pt11   Pt    0.30000   0.08333   0.11326   0.00000  Uiso   1.00
Pt12   Pt    0.20000   0.33333   0.11326   0.00000  Uiso   1.00
Pt13   Pt    0.40000   0.00000   0.00000   0.00000  Uiso   1.00
Pt14   Pt    0.50000   0.25000   0.00000   0.00000  Uiso   1.00
Pt15   Pt    0.40000   0.16667   0.05663   0.00000  Uiso   1.00
Pt16   Pt    0.50000   0.41667   0.05663   0.00000  Uiso   1.00
Pt17   Pt    0.50000   0.08333   0.11326   0.00000  Uiso   1.00
Pt18   Pt    0.40000   0.33333   0.11326   0.00000  Uiso   1.00
Pt19   Pt    0.60000   0.00000   0.00000   0.00000  Uiso   1.00
Pt20   Pt    0.70000   0.25000   0.00000   0.00000  Uiso   1.00
Pt21   Pt    0.60000   0.16667   0.05663   0.00000  Uiso   1.00
Pt22   Pt    0.70000   0.41667   0.05663   0.00000  Uiso   1.00
Pt23   Pt    0.70000   0.08333   0.11326   0.00000  Uiso   1.00
Pt24   Pt    0.60000   0.33333   0.11326   0.00000  Uiso   1.00
Pt25   Pt    0.80000   0.00000   0.00000   0.00000  Uiso   1.00
Pt26   Pt    0.90000   0.25000   0.00000   0.00000  Uiso   1.00
Pt27   Pt    0.80000   0.16667   0.05663   0.00000  Uiso   1.00
Pt28   Pt    0.90000   0.41667   0.05663   0.00000  Uiso   1.00
Pt29   Pt    0.90000   0.08333   0.11326   0.00000  Uiso   1.00
Pt30   Pt    0.80000   0.33333   0.11326   0.00000  Uiso   1.00
Pt31   Pt   -0.00000   0.50000  -0.00000   0.00000  Uiso   1.00
Pt32   Pt    0.10000   0.75000   0.00000   0.00000  Uiso   1.00
Pt33   Pt   -0.00000   0.66667   0.05663   0.00000  Uiso   1.00
Pt34   Pt    0.10000   0.91667   0.05663   0.00000  Uiso   1.00
Pt35   Pt    0.10000   0.58333   0.11326   0.00000  Uiso   1.00
Pt36   Pt   -0.00000   0.83333   0.11326   0.00000  Uiso   1.00
Pt37   Pt    0.20000   0.50000   0.00000   0.00000  Uiso   1.00
Pt38   Pt    0.30000   0.75000   0.00000   0.00000  Uiso   1.00
Pt39   Pt    0.20000   0.66667   0.05663   0.00000  Uiso   1.00
Pt40   Pt    0.30000   0.91667   0.05663   0.00000  Uiso   1.00
Pt41   Pt    0.30000   0.58333   0.11326   0.00000  Uiso   1.00
Pt42   Pt    0.20000   0.83333   0.11326   0.00000  Uiso   1.00
Pt43   Pt    0.40000   0.50000   0.00000   0.00000  Uiso   1.00
Pt44   Pt    0.50000   0.75000   0.00000   0.00000  Uiso   1.00
Pt45   Pt    0.40000   0.66667   0.05663   0.00000  Uiso   1.00
Pt46   Pt    0.50000   0.91667   0.05663   0.00000  Uiso   1.00
Pt47   Pt    0.50000   0.58333   0.11326   0.00000  Uiso   1.00
Pt48   Pt    0.40000   0.83333   0.11326   0.00000  Uiso   1.00
Pt49   Pt    0.60000   0.50000   0.00000   0.00000  Uiso   1.00
Pt50   Pt    0.70000   0.75000   0.00000   0.00000  Uiso   1.00
Pt51   Pt    0.60000   0.66667   0.05663   0.00000  Uiso   1.00
Pt52   Pt    0.70000   0.91667   0.05663   0.00000  Uiso   1.00
Pt53   Pt    0.70000   0.58333   0.11326   0.00000  Uiso   1.00
Pt54   Pt    0.60000   0.83333   0.11326   0.00000  Uiso   1.00
Pt55   Pt    0.80000   0.50000   0.00000   0.00000  Uiso   1.00
Pt56   Pt    0.90000   0.75000   0.00000   0.00000  Uiso   1.00
Pt57   Pt    0.80000   0.66667   0.05663   0.00000  Uiso   1.00
Pt58   Pt    0.90000   0.91667   0.05663   0.00000  Uiso   1.00
Pt59   Pt    0.90000   0.58333   0.11326   0.00000  Uiso   1.00
Pt60   Pt    0.80000   0.83333   0.11326   0.00000  Uiso   1.00
Pt61   Pt   -0.00000  -0.00000   0.16990   0.00000  Uiso   1.00
Pt62   Pt    0.10000   0.25000   0.16990   0.00000  Uiso   1.00
Pt63   Pt   -0.00000   0.16667   0.22653   0.00000  Uiso   1.00
Pt64   Pt    0.10000   0.41667   0.22653   0.00000  Uiso   1.00
Pt65   Pt    0.10000   0.08333   0.28316   0.00000  Uiso   1.00
Pt66   Pt   -0.00000   0.33333   0.28316   0.00000  Uiso   1.00
Pt67   Pt    0.20000  -0.00000   0.16990   0.00000  Uiso   1.00
Pt68   Pt    0.30000   0.25000   0.16990   0.00000  Uiso   1.00
Pt69   Pt    0.20000   0.16667   0.22653   0.00000  Uiso   1.00
Pt70   Pt    0.30000   0.41667   0.22653   0.00000  Uiso   1.00
Pt71   Pt    0.30000   0.08333   0.28316   0.00000  Uiso   1.00
Pt72   Pt    0.20000   0.33333   0.28316   0.00000  Uiso   1.00
Pt73   Pt    0.40000  -0.00000   0.16990   0.00000  Uiso   1.00
Pt74   Pt    0.50000   0.25000   0.16990   0.00000  Uiso   1.00
Pt75   Pt    0.40000   0.16667   0.22653   0.00000  Uiso   1.00
Pt76   Pt    0.50000   0.41667   0.22653   0.00000  Uiso   1.00
Pt77   Pt    0.50000   0.08333   0.28316   0.00000  Uiso   1.00
Pt78   Pt    0.40000   0.33333   0.28316   0.00000  Uiso   1.00
Pt79   Pt    0.60000  -0.00000   0.16990   0.00000  Uiso   1.00
Pt80   Pt    0.70000   0.25000   0.16990   0.00000  Uiso   1.00
Pt81   Pt    0.60000   0.16667   0.22653   0.00000  Uiso   1.00
Pt82   Pt    0.70000   0.41667   0.22653   0.00000  Uiso   1.00
Pt83   Pt    0.70000   0.08333   0.28316   0.00000  Uiso   1.00
Pt84   Pt    0.60000   0.33333   0.28316   0.00000  Uiso   1.00
Pt85   Pt    0.80000  -0.00000   0.16990   0.00000  Uiso   1.00
Pt86   Pt    0.90000   0.25000   0.16990   0.00000  Uiso   1.00
Pt87   Pt    0.80000   0.16667   0.22653   0.00000  Uiso   1.00
Pt88   Pt    0.90000   0.41667   0.22653   0.00000  Uiso   1.00
Pt89   Pt    0.90000   0.08333   0.28316   0.00000  Uiso   1.00
Pt90   Pt    0.80000   0.33333   0.28316   0.00000  Uiso   1.00
Pt91   Pt   -0.00000   0.50000   0.16990   0.00000  Uiso   1.00
Pt92   Pt    0.10000   0.75000   0.16990   0.00000  Uiso   1.00
Pt93   Pt   -0.00000   0.66667   0.22653   0.00000  Uiso   1.00
Pt94   Pt    0.10000   0.91667   0.22653   0.00000  Uiso   1.00
Pt95   Pt    0.10000   0.58333   0.28316   0.00000  Uiso   1.00
Pt96   Pt   -0.00000   0.83333   0.28316   0.00000  Uiso   1.00
Pt97   Pt    0.20000   0.50000   0.16990   0.00000  Uiso   1.00
Pt98   Pt    0.30000   0.75000   0.16990   0.00000  Uiso   1.00
Pt99   Pt    0.20000   0.66667   0.22653   0.00000  Uiso   1.00
Pt100  Pt    0.30000   0.91667   0.22653   0.00000  Uiso   1.00
Pt101  Pt    0.30000   0.58333   0.28316   0.00000  Uiso   1.00
Pt102  Pt    0.20000   0.83333   0.28316   0.00000  Uiso   1.00
Pt103  Pt    0.40000   0.50000   0.16990   0.00000  Uiso   1.00
Pt104  Pt    0.50000   0.75000   0.16990   0.00000  Uiso   1.00
Pt105  Pt    0.40000   0.66667   0.22653   0.00000  Uiso   1.00
Pt106  Pt    0.50000   0.91667   0.22653   0.00000  Uiso   1.00
Pt107  Pt    0.50000   0.58333   0.28316   0.00000  Uiso   1.00
Pt108  Pt    0.40000   0.83333   0.28316   0.00000  Uiso   1.00
Pt109  Pt    0.60000   0.50000   0.16990   0.00000  Uiso   1.00
Pt110  Pt    0.70000   0.75000   0.16990   0.00000  Uiso   1.00
Pt111  Pt    0.60000   0.66667   0.22653   0.00000  Uiso   1.00
Pt112  Pt    0.70000   0.91667   0.22653   0.00000  Uiso   1.00
Pt113  Pt    0.70000   0.58333   0.28316   0.00000  Uiso   1.00
Pt114  Pt    0.60000   0.83333   0.28316   0.00000  Uiso   1.00
Pt115  Pt    0.80000   0.50000   0.16990   0.00000  Uiso   1.00
Pt116  Pt    0.90000   0.75000   0.16990   0.00000  Uiso   1.00
Pt117  Pt    0.80000   0.66667   0.22653   0.00000  Uiso   1.00
Pt118  Pt    0.90000   0.91667   0.22653   0.00000  Uiso   1.00
Pt119  Pt    0.90000   0.58333   0.28316   0.00000  Uiso   1.00
Pt120  Pt    0.80000   0.83333   0.28316   0.00000  Uiso   1.00
H121   H     0.30655   0.52097   0.61555   0.00000  Uiso   1.00
C122   C     0.38546   0.52097   0.61555   0.00000  Uiso   1.00
C123   C     0.43561   0.64633   0.61555   0.00000  Uiso   1.00
C124   C     0.53589   0.64633   0.61555   0.00000  Uiso   1.00
C125   C     0.58603   0.52097   0.61555   0.00000  Uiso   1.00
C126   C     0.53589   0.39562   0.61555   0.00000  Uiso   1.00
C127   C     0.43561   0.39562   0.61555   0.00000  Uiso   1.00
H128   H     0.66494   0.52097   0.61555   0.00000  Uiso   1.00
H129   H     0.39615   0.74497   0.61555   0.00000  Uiso   1.00
H130   H     0.57534   0.74497   0.61555   0.00000  Uiso   1.00
H131   H     0.57534   0.29698   0.61555   0.00000  Uiso   1.00
H132   H     0.39615   0.29698   0.61555   0.00000  Uiso   1.00
loop_
_geom_bond_atom_site_label_1
_geom_bond_atom_site_label_2
_geom_bond_distance
_geom_bond_site_symmetry_2
_ccdc_geom_bond_type
H121   C122    1.095   .     S
C122   C123    1.391   .     A
C122   C127    1.391   .     A
C123   C124    1.391   .     A
C123   H129    1.095   .     S
C124   C125    1.391   .     A
C124   H130    1.095   .     S
C125   H128    1.095   .     S
C125   C126    1.391   .     A
C126   C127    1.391   .     A
C126   H131    1.095   .     S
C127   H132    1.095   .     S
