data_Ben_Pt_05_3x2_away
_audit_creation_date              2021-12-13
_audit_creation_method            'Materials Studio'
_symmetry_space_group_name_H-M    'P1'
_symmetry_Int_Tables_number       1
_symmetry_cell_setting            triclinic
loop_
_symmetry_equiv_pos_as_xyz
  x,y,z
_cell_length_a                    8.3232
_cell_length_b                    9.6108
_cell_length_c                    40.0000
_cell_angle_alpha                 90.0000
_cell_angle_beta                  90.0000
_cell_angle_gamma                 90.0000
loop_
_atom_site_label
_atom_site_type_symbol
_atom_site_fract_x
_atom_site_fract_y
_atom_site_fract_z
_atom_site_U_iso_or_equiv
_atom_site_adp_type
_atom_site_occupancy
Pt1    Pt    0.00000   0.00000   0.00000   0.00000  Uiso   1.00
Pt2    Pt    0.16666   0.25000   0.00000   0.00000  Uiso   1.00
Pt3    Pt   -0.00000   0.16667   0.05663   0.00000  Uiso   1.00
Pt4    Pt    0.16666   0.41667   0.05663   0.00000  Uiso   1.00
Pt5    Pt    0.16666   0.08333   0.11326   0.00000  Uiso   1.00
Pt6    Pt   -0.00000   0.33333   0.11326   0.00000  Uiso   1.00
Pt7    Pt    0.33333  -0.00000   0.00000   0.00000  Uiso   1.00
Pt8    Pt    0.50000   0.25000   0.00000   0.00000  Uiso   1.00
Pt9    Pt    0.33333   0.16667   0.05663   0.00000  Uiso   1.00
Pt10   Pt    0.50000   0.41667   0.05663   0.00000  Uiso   1.00
Pt11   Pt    0.50000   0.08333   0.11326   0.00000  Uiso   1.00
Pt12   Pt    0.33333   0.33333   0.11326   0.00000  Uiso   1.00
Pt13   Pt    0.66667  -0.00000   0.00000   0.00000  Uiso   1.00
Pt14   Pt    0.83333   0.25000   0.00000   0.00000  Uiso   1.00
Pt15   Pt    0.66667   0.16667   0.05663   0.00000  Uiso   1.00
Pt16   Pt    0.83333   0.41667   0.05663   0.00000  Uiso   1.00
Pt17   Pt    0.83333   0.08333   0.11326   0.00000  Uiso   1.00
Pt18   Pt    0.66667   0.33333   0.11326   0.00000  Uiso   1.00
Pt19   Pt   -0.00000   0.50000   0.00000   0.00000  Uiso   1.00
Pt20   Pt    0.16666   0.75000   0.00000   0.00000  Uiso   1.00
Pt21   Pt   -0.00000   0.66667   0.05663   0.00000  Uiso   1.00
Pt22   Pt    0.16666   0.91667   0.05663   0.00000  Uiso   1.00
Pt23   Pt    0.16666   0.58333   0.11326   0.00000  Uiso   1.00
Pt24   Pt   -0.00000   0.83333   0.11326   0.00000  Uiso   1.00
Pt25   Pt    0.33333   0.50000   0.00000   0.00000  Uiso   1.00
Pt26   Pt    0.50000   0.75000   0.00000   0.00000  Uiso   1.00
Pt27   Pt    0.33333   0.66667   0.05663   0.00000  Uiso   1.00
Pt28   Pt    0.50000   0.91667   0.05663   0.00000  Uiso   1.00
Pt29   Pt    0.50000   0.58333   0.11326   0.00000  Uiso   1.00
Pt30   Pt    0.33333   0.83333   0.11326   0.00000  Uiso   1.00
Pt31   Pt    0.66667   0.50000   0.00000   0.00000  Uiso   1.00
Pt32   Pt    0.83333   0.75000   0.00000   0.00000  Uiso   1.00
Pt33   Pt    0.66667   0.66667   0.05663   0.00000  Uiso   1.00
Pt34   Pt    0.83333   0.91667   0.05663   0.00000  Uiso   1.00
Pt35   Pt    0.83333   0.58333   0.11326   0.00000  Uiso   1.00
Pt36   Pt    0.66667   0.83333   0.11326   0.00000  Uiso   1.00
Pt37   Pt   -0.00000  -0.00000   0.16990   0.00000  Uiso   1.00
Pt38   Pt    0.16666   0.25000   0.16990   0.00000  Uiso   1.00
Pt39   Pt   -0.00000   0.16667   0.22653   0.00000  Uiso   1.00
Pt40   Pt    0.16666   0.41667   0.22653   0.00000  Uiso   1.00
Pt41   Pt    0.16666   0.08333   0.28316   0.00000  Uiso   1.00
Pt42   Pt   -0.00000   0.33333   0.28316   0.00000  Uiso   1.00
Pt43   Pt    0.33333  -0.00000   0.16990   0.00000  Uiso   1.00
Pt44   Pt    0.50000   0.25000   0.16990   0.00000  Uiso   1.00
Pt45   Pt    0.33333   0.16667   0.22653   0.00000  Uiso   1.00
Pt46   Pt    0.50000   0.41667   0.22653   0.00000  Uiso   1.00
Pt47   Pt    0.50000   0.08333   0.28316   0.00000  Uiso   1.00
Pt48   Pt    0.33333   0.33333   0.28316   0.00000  Uiso   1.00
Pt49   Pt    0.66667  -0.00000   0.16990   0.00000  Uiso   1.00
Pt50   Pt    0.83333   0.25000   0.16990   0.00000  Uiso   1.00
Pt51   Pt    0.66667   0.16667   0.22653   0.00000  Uiso   1.00
Pt52   Pt    0.83333   0.41667   0.22653   0.00000  Uiso   1.00
Pt53   Pt    0.83333   0.08333   0.28316   0.00000  Uiso   1.00
Pt54   Pt    0.66667   0.33333   0.28316   0.00000  Uiso   1.00
Pt55   Pt   -0.00000   0.50000   0.16990   0.00000  Uiso   1.00
Pt56   Pt    0.16666   0.75000   0.16990   0.00000  Uiso   1.00
Pt57   Pt   -0.00000   0.66667   0.22653   0.00000  Uiso   1.00
Pt58   Pt    0.16666   0.91667   0.22653   0.00000  Uiso   1.00
Pt59   Pt    0.16666   0.58333   0.28316   0.00000  Uiso   1.00
Pt60   Pt   -0.00000   0.83333   0.28316   0.00000  Uiso   1.00
Pt61   Pt    0.33333   0.50000   0.16990   0.00000  Uiso   1.00
Pt62   Pt    0.50000   0.75000   0.16990   0.00000  Uiso   1.00
Pt63   Pt    0.33333   0.66667   0.22653   0.00000  Uiso   1.00
Pt64   Pt    0.50000   0.91667   0.22653   0.00000  Uiso   1.00
Pt65   Pt    0.50000   0.58333   0.28316   0.00000  Uiso   1.00
Pt66   Pt    0.33333   0.83333   0.28316   0.00000  Uiso   1.00
Pt67   Pt    0.66667   0.50000   0.16990   0.00000  Uiso   1.00
Pt68   Pt    0.83333   0.75000   0.16990   0.00000  Uiso   1.00
Pt69   Pt    0.66667   0.66667   0.22653   0.00000  Uiso   1.00
Pt70   Pt    0.83333   0.91667   0.22653   0.00000  Uiso   1.00
Pt71   Pt    0.83333   0.58333   0.28316   0.00000  Uiso   1.00
Pt72   Pt    0.66667   0.83333   0.28316   0.00000  Uiso   1.00
H73    H     0.19014   0.54693   0.63582   0.00000  Uiso   1.00
C74    C     0.31743   0.52596   0.63762   0.00000  Uiso   1.00
C75    C     0.42682   0.63572   0.63845   0.00000  Uiso   1.00
C76    C     0.59150   0.60841   0.63898   0.00000  Uiso   1.00
C77    C     0.64637   0.47143   0.63823   0.00000  Uiso   1.00
C78    C     0.53676   0.36170   0.63786   0.00000  Uiso   1.00
C79    C     0.37245   0.38893   0.63775   0.00000  Uiso   1.00
H80    H     0.77374   0.45020   0.63690   0.00000  Uiso   1.00
H81    H     0.38425   0.74182   0.63720   0.00000  Uiso   1.00
H82    H     0.67643   0.69338   0.63808   0.00000  Uiso   1.00
H83    H     0.57926   0.25562   0.63624   0.00000  Uiso   1.00
H84    H     0.28779   0.30393   0.63602   0.00000  Uiso   1.00
loop_
_geom_bond_atom_site_label_1
_geom_bond_atom_site_label_2
_geom_bond_distance
_geom_bond_site_symmetry_2
_ccdc_geom_bond_type
H73    C74     1.081   .     S
C74    C75     1.394   .     A
C74    C79     1.394   .     A
C75    C76     1.396   .     A
C75    H81     1.081   .     S
C76    C77     1.394   .     A
C76    H82     1.081   .     S
C77    H80     1.081   .     S
C77    C78     1.395   .     A
C78    C79     1.392   .     A
C78    H83     1.081   .     S
C79    H84     1.081   .     S
