data_Nap_0.3_7x2_away
_audit_creation_date              2021-12-15
_audit_creation_method            'Materials Studio'
_symmetry_space_group_name_H-M    'P1'
_symmetry_Int_Tables_number       1
_symmetry_cell_setting            triclinic
loop_
_symmetry_equiv_pos_as_xyz
  x,y,z
_cell_length_a                    19.4208
_cell_length_b                    9.6108
_cell_length_c                    40.0000
_cell_angle_alpha                 90.0000
_cell_angle_beta                  90.0000
_cell_angle_gamma                 90.0000
loop_
_atom_site_label
_atom_site_type_symbol
_atom_site_fract_x
_atom_site_fract_y
_atom_site_fract_z
_atom_site_U_iso_or_equiv
_atom_site_adp_type
_atom_site_occupancy
Pt1    Pt    0.00000   0.00000   0.00000   0.00000  Uiso   1.00
Pt2    Pt    0.07143   0.25000   0.00000   0.00000  Uiso   1.00
Pt3    Pt   -0.00000   0.16667   0.05663   0.00000  Uiso   1.00
Pt4    Pt    0.07143   0.41667   0.05663   0.00000  Uiso   1.00
Pt5    Pt    0.07143   0.08333   0.11326   0.00000  Uiso   1.00
Pt6    Pt   -0.00000   0.33333   0.11326   0.00000  Uiso   1.00
Pt7    Pt    0.14286  -0.00000   0.00000   0.00000  Uiso   1.00
Pt8    Pt    0.21428   0.25000   0.00000   0.00000  Uiso   1.00
Pt9    Pt    0.14286   0.16667   0.05663   0.00000  Uiso   1.00
Pt10   Pt    0.21428   0.41667   0.05663   0.00000  Uiso   1.00
Pt11   Pt    0.21428   0.08333   0.11326   0.00000  Uiso   1.00
Pt12   Pt    0.14286   0.33333   0.11326   0.00000  Uiso   1.00
Pt13   Pt    0.28571  -0.00000   0.00000   0.00000  Uiso   1.00
Pt14   Pt    0.35714   0.25000   0.00000   0.00000  Uiso   1.00
Pt15   Pt    0.28571   0.16667   0.05663   0.00000  Uiso   1.00
Pt16   Pt    0.35714   0.41667   0.05663   0.00000  Uiso   1.00
Pt17   Pt    0.35714   0.08333   0.11326   0.00000  Uiso   1.00
Pt18   Pt    0.28571   0.33333   0.11326   0.00000  Uiso   1.00
Pt19   Pt    0.42857  -0.00000   0.00000   0.00000  Uiso   1.00
Pt20   Pt    0.50000   0.25000   0.00000   0.00000  Uiso   1.00
Pt21   Pt    0.42857   0.16667   0.05663   0.00000  Uiso   1.00
Pt22   Pt    0.50000   0.41667   0.05663   0.00000  Uiso   1.00
Pt23   Pt    0.50000   0.08333   0.11326   0.00000  Uiso   1.00
Pt24   Pt    0.42857   0.33333   0.11326   0.00000  Uiso   1.00
Pt25   Pt    0.57143  -0.00000   0.00000   0.00000  Uiso   1.00
Pt26   Pt    0.64286   0.25000   0.00000   0.00000  Uiso   1.00
Pt27   Pt    0.57143   0.16667   0.05663   0.00000  Uiso   1.00
Pt28   Pt    0.64286   0.41667   0.05663   0.00000  Uiso   1.00
Pt29   Pt    0.64286   0.08333   0.11326   0.00000  Uiso   1.00
Pt30   Pt    0.57143   0.33333   0.11326   0.00000  Uiso   1.00
Pt31   Pt    0.71429  -0.00000   0.00000   0.00000  Uiso   1.00
Pt32   Pt    0.78571   0.25000   0.00000   0.00000  Uiso   1.00
Pt33   Pt    0.71429   0.16667   0.05663   0.00000  Uiso   1.00
Pt34   Pt    0.78571   0.41667   0.05663   0.00000  Uiso   1.00
Pt35   Pt    0.78571   0.08333   0.11326   0.00000  Uiso   1.00
Pt36   Pt    0.71429   0.33333   0.11326   0.00000  Uiso   1.00
Pt37   Pt    0.85714  -0.00000   0.00000   0.00000  Uiso   1.00
Pt38   Pt    0.92857   0.25000   0.00000   0.00000  Uiso   1.00
Pt39   Pt    0.85714   0.16667   0.05663   0.00000  Uiso   1.00
Pt40   Pt    0.92857   0.41667   0.05663   0.00000  Uiso   1.00
Pt41   Pt    0.92857   0.08333   0.11326   0.00000  Uiso   1.00
Pt42   Pt    0.85714   0.33333   0.11326   0.00000  Uiso   1.00
Pt43   Pt   -0.00000   0.50000   0.00000   0.00000  Uiso   1.00
Pt44   Pt    0.07143   0.75000   0.00000   0.00000  Uiso   1.00
Pt45   Pt   -0.00000   0.66667   0.05663   0.00000  Uiso   1.00
Pt46   Pt    0.07143   0.91667   0.05663   0.00000  Uiso   1.00
Pt47   Pt    0.07143   0.58333   0.11326   0.00000  Uiso   1.00
Pt48   Pt   -0.00000   0.83333   0.11326   0.00000  Uiso   1.00
Pt49   Pt    0.14286   0.50000   0.00000   0.00000  Uiso   1.00
Pt50   Pt    0.21428   0.75000   0.00000   0.00000  Uiso   1.00
Pt51   Pt    0.14286   0.66667   0.05663   0.00000  Uiso   1.00
Pt52   Pt    0.21428   0.91667   0.05663   0.00000  Uiso   1.00
Pt53   Pt    0.21428   0.58333   0.11326   0.00000  Uiso   1.00
Pt54   Pt    0.14286   0.83333   0.11326   0.00000  Uiso   1.00
Pt55   Pt    0.28571   0.50000   0.00000   0.00000  Uiso   1.00
Pt56   Pt    0.35714   0.75000   0.00000   0.00000  Uiso   1.00
Pt57   Pt    0.28571   0.66667   0.05663   0.00000  Uiso   1.00
Pt58   Pt    0.35714   0.91667   0.05663   0.00000  Uiso   1.00
Pt59   Pt    0.35714   0.58333   0.11326   0.00000  Uiso   1.00
Pt60   Pt    0.28571   0.83333   0.11326   0.00000  Uiso   1.00
Pt61   Pt    0.42857   0.50000   0.00000   0.00000  Uiso   1.00
Pt62   Pt    0.50000   0.75000   0.00000   0.00000  Uiso   1.00
Pt63   Pt    0.42857   0.66667   0.05663   0.00000  Uiso   1.00
Pt64   Pt    0.50000   0.91667   0.05663   0.00000  Uiso   1.00
Pt65   Pt    0.50000   0.58333   0.11326   0.00000  Uiso   1.00
Pt66   Pt    0.42857   0.83333   0.11326   0.00000  Uiso   1.00
Pt67   Pt    0.57143   0.50000   0.00000   0.00000  Uiso   1.00
Pt68   Pt    0.64286   0.75000   0.00000   0.00000  Uiso   1.00
Pt69   Pt    0.57143   0.66667   0.05663   0.00000  Uiso   1.00
Pt70   Pt    0.64286   0.91667   0.05663   0.00000  Uiso   1.00
Pt71   Pt    0.64286   0.58333   0.11326   0.00000  Uiso   1.00
Pt72   Pt    0.57143   0.83333   0.11326   0.00000  Uiso   1.00
Pt73   Pt    0.71429   0.50000   0.00000   0.00000  Uiso   1.00
Pt74   Pt    0.78571   0.75000   0.00000   0.00000  Uiso   1.00
Pt75   Pt    0.71429   0.66667   0.05663   0.00000  Uiso   1.00
Pt76   Pt    0.78571   0.91667   0.05663   0.00000  Uiso   1.00
Pt77   Pt    0.78571   0.58333   0.11326   0.00000  Uiso   1.00
Pt78   Pt    0.71429   0.83333   0.11326   0.00000  Uiso   1.00
Pt79   Pt    0.85714   0.50000   0.00000   0.00000  Uiso   1.00
Pt80   Pt    0.92857   0.75000   0.00000   0.00000  Uiso   1.00
Pt81   Pt    0.85714   0.66667   0.05663   0.00000  Uiso   1.00
Pt82   Pt    0.92857   0.91667   0.05663   0.00000  Uiso   1.00
Pt83   Pt    0.92857   0.58333   0.11326   0.00000  Uiso   1.00
Pt84   Pt    0.85714   0.83333   0.11326   0.00000  Uiso   1.00
Pt85   Pt   -0.00000  -0.00000   0.16990   0.00000  Uiso   1.00
Pt86   Pt    0.07143   0.25000   0.16990   0.00000  Uiso   1.00
Pt87   Pt   -0.00000   0.16667   0.22653   0.00000  Uiso   1.00
Pt88   Pt    0.07143   0.41667   0.22653   0.00000  Uiso   1.00
Pt89   Pt    0.07143   0.08333   0.28316   0.00000  Uiso   1.00
Pt90   Pt   -0.00000   0.33333   0.28316   0.00000  Uiso   1.00
Pt91   Pt    0.14286  -0.00000   0.16990   0.00000  Uiso   1.00
Pt92   Pt    0.21428   0.25000   0.16990   0.00000  Uiso   1.00
Pt93   Pt    0.14286   0.16667   0.22653   0.00000  Uiso   1.00
Pt94   Pt    0.21428   0.41667   0.22653   0.00000  Uiso   1.00
Pt95   Pt    0.21428   0.08333   0.28316   0.00000  Uiso   1.00
Pt96   Pt    0.14286   0.33333   0.28316   0.00000  Uiso   1.00
Pt97   Pt    0.28571  -0.00000   0.16990   0.00000  Uiso   1.00
Pt98   Pt    0.35714   0.25000   0.16990   0.00000  Uiso   1.00
Pt99   Pt    0.28571   0.16667   0.22653   0.00000  Uiso   1.00
Pt100  Pt    0.35714   0.41667   0.22653   0.00000  Uiso   1.00
Pt101  Pt    0.35714   0.08333   0.28316   0.00000  Uiso   1.00
Pt102  Pt    0.28571   0.33333   0.28316   0.00000  Uiso   1.00
Pt103  Pt    0.42857  -0.00000   0.16990   0.00000  Uiso   1.00
Pt104  Pt    0.50000   0.25000   0.16990   0.00000  Uiso   1.00
Pt105  Pt    0.42857   0.16667   0.22653   0.00000  Uiso   1.00
Pt106  Pt    0.50000   0.41667   0.22653   0.00000  Uiso   1.00
Pt107  Pt    0.50000   0.08333   0.28316   0.00000  Uiso   1.00
Pt108  Pt    0.42857   0.33333   0.28316   0.00000  Uiso   1.00
Pt109  Pt    0.57143  -0.00000   0.16990   0.00000  Uiso   1.00
Pt110  Pt    0.64286   0.25000   0.16990   0.00000  Uiso   1.00
Pt111  Pt    0.57143   0.16667   0.22653   0.00000  Uiso   1.00
Pt112  Pt    0.64286   0.41667   0.22653   0.00000  Uiso   1.00
Pt113  Pt    0.64286   0.08333   0.28316   0.00000  Uiso   1.00
Pt114  Pt    0.57143   0.33333   0.28316   0.00000  Uiso   1.00
Pt115  Pt    0.71429  -0.00000   0.16990   0.00000  Uiso   1.00
Pt116  Pt    0.78571   0.25000   0.16990   0.00000  Uiso   1.00
Pt117  Pt    0.71429   0.16667   0.22653   0.00000  Uiso   1.00
Pt118  Pt    0.78571   0.41667   0.22653   0.00000  Uiso   1.00
Pt119  Pt    0.78571   0.08333   0.28316   0.00000  Uiso   1.00
Pt120  Pt    0.71429   0.33333   0.28316   0.00000  Uiso   1.00
Pt121  Pt    0.85714  -0.00000   0.16990   0.00000  Uiso   1.00
Pt122  Pt    0.92857   0.25000   0.16990   0.00000  Uiso   1.00
Pt123  Pt    0.85714   0.16667   0.22653   0.00000  Uiso   1.00
Pt124  Pt    0.92857   0.41667   0.22653   0.00000  Uiso   1.00
Pt125  Pt    0.92857   0.08333   0.28316   0.00000  Uiso   1.00
Pt126  Pt    0.85714   0.33333   0.28316   0.00000  Uiso   1.00
Pt127  Pt   -0.00000   0.50000   0.16990   0.00000  Uiso   1.00
Pt128  Pt    0.07143   0.75000   0.16990   0.00000  Uiso   1.00
Pt129  Pt   -0.00000   0.66667   0.22653   0.00000  Uiso   1.00
Pt130  Pt    0.07143   0.91667   0.22653   0.00000  Uiso   1.00
Pt131  Pt    0.07143   0.58333   0.28316   0.00000  Uiso   1.00
Pt132  Pt   -0.00000   0.83333   0.28316   0.00000  Uiso   1.00
Pt133  Pt    0.14286   0.50000   0.16990   0.00000  Uiso   1.00
Pt134  Pt    0.21428   0.75000   0.16990   0.00000  Uiso   1.00
Pt135  Pt    0.14286   0.66667   0.22653   0.00000  Uiso   1.00
Pt136  Pt    0.21428   0.91667   0.22653   0.00000  Uiso   1.00
Pt137  Pt    0.21428   0.58333   0.28316   0.00000  Uiso   1.00
Pt138  Pt    0.14286   0.83333   0.28316   0.00000  Uiso   1.00
Pt139  Pt    0.28571   0.50000   0.16990   0.00000  Uiso   1.00
Pt140  Pt    0.35714   0.75000   0.16990   0.00000  Uiso   1.00
Pt141  Pt    0.28571   0.66667   0.22653   0.00000  Uiso   1.00
Pt142  Pt    0.35714   0.91667   0.22653   0.00000  Uiso   1.00
Pt143  Pt    0.35714   0.58333   0.28316   0.00000  Uiso   1.00
Pt144  Pt    0.28571   0.83333   0.28316   0.00000  Uiso   1.00
Pt145  Pt    0.42857   0.50000   0.16990   0.00000  Uiso   1.00
Pt146  Pt    0.50000   0.75000   0.16990   0.00000  Uiso   1.00
Pt147  Pt    0.42857   0.66667   0.22653   0.00000  Uiso   1.00
Pt148  Pt    0.50000   0.91667   0.22653   0.00000  Uiso   1.00
Pt149  Pt    0.50000   0.58333   0.28316   0.00000  Uiso   1.00
Pt150  Pt    0.42857   0.83333   0.28316   0.00000  Uiso   1.00
Pt151  Pt    0.57143   0.50000   0.16990   0.00000  Uiso   1.00
Pt152  Pt    0.64286   0.75000   0.16990   0.00000  Uiso   1.00
Pt153  Pt    0.57143   0.66667   0.22653   0.00000  Uiso   1.00
Pt154  Pt    0.64286   0.91667   0.22653   0.00000  Uiso   1.00
Pt155  Pt    0.64286   0.58333   0.28316   0.00000  Uiso   1.00
Pt156  Pt    0.57143   0.83333   0.28316   0.00000  Uiso   1.00
Pt157  Pt    0.71429   0.50000   0.16990   0.00000  Uiso   1.00
Pt158  Pt    0.78571   0.75000   0.16990   0.00000  Uiso   1.00
Pt159  Pt    0.71429   0.66667   0.22653   0.00000  Uiso   1.00
Pt160  Pt    0.78571   0.91667   0.22653   0.00000  Uiso   1.00
Pt161  Pt    0.78571   0.58333   0.28316   0.00000  Uiso   1.00
Pt162  Pt    0.71429   0.83333   0.28316   0.00000  Uiso   1.00
Pt163  Pt    0.85714   0.50000   0.16990   0.00000  Uiso   1.00
Pt164  Pt    0.92857   0.75000   0.16990   0.00000  Uiso   1.00
Pt165  Pt    0.85714   0.66667   0.22653   0.00000  Uiso   1.00
Pt166  Pt    0.92857   0.91667   0.22653   0.00000  Uiso   1.00
Pt167  Pt    0.92857   0.58333   0.28316   0.00000  Uiso   1.00
Pt168  Pt    0.85714   0.83333   0.28316   0.00000  Uiso   1.00
H169   H     0.30860   0.71250   0.63609   0.00000  Uiso   1.00
C170   C     0.35740   0.65829   0.63741   0.00000  Uiso   1.00
C171   C     0.41919   0.73174   0.63782   0.00000  Uiso   1.00
C172   C     0.48220   0.66076   0.63752   0.00000  Uiso   1.00
C173   C     0.48215   0.51093   0.63749   0.00000  Uiso   1.00
C174   C     0.41894   0.43998   0.63778   0.00000  Uiso   1.00
C175   C     0.35723   0.51387   0.63715   0.00000  Uiso   1.00
H176   H     0.41688   0.84398   0.63678   0.00000  Uiso   1.00
H177   H     0.41578   0.32769   0.63665   0.00000  Uiso   1.00
H178   H     0.30838   0.45988   0.63568   0.00000  Uiso   1.00
H179   H     0.65598   0.46070   0.63347   0.00000  Uiso   1.00
C180   C     0.60707   0.51414   0.63533   0.00000  Uiso   1.00
C181   C     0.54524   0.44025   0.63637   0.00000  Uiso   1.00
C182   C     0.54517   0.73190   0.63630   0.00000  Uiso   1.00
C183   C     0.60693   0.65857   0.63520   0.00000  Uiso   1.00
H184   H     0.54761   0.32806   0.63536   0.00000  Uiso   1.00
H185   H     0.54806   0.84428   0.63532   0.00000  Uiso   1.00
H186   H     0.65553   0.71328   0.63331   0.00000  Uiso   1.00
loop_
_geom_bond_atom_site_label_1
_geom_bond_atom_site_label_2
_geom_bond_distance
_geom_bond_site_symmetry_2
_ccdc_geom_bond_type
H169   C170    1.083   .     S
C170   C171    1.392   .     A
C170   C175    1.388   .     A
C171   C172    1.401   .     A
C171   H176    1.081   .     S
C172   C173    1.440   .     A
C172   C182    1.402   .     A
C173   C174    1.404   .     A
C173   C181    1.402   .     A
C174   C175    1.393   .     A
C174   H177    1.082   .     S
C175   H178    1.083   .     S
H179   C180    1.082   .     S
C180   C181    1.396   .     A
C180   C183    1.388   .     A
C181   H184    1.080   .     S
C182   C183    1.392   .     A
C182   H185    1.082   .     S
C183   H186    1.083   .     S
