# generated using pymatgen
data_Al
_symmetry_space_group_name_H-M   'P 1'
_cell_length_a   2.85595500
_cell_length_b   2.85595500
_cell_length_c   32.31144000
_cell_angle_alpha   90.00000000
_cell_angle_beta   90.00000000
_cell_angle_gamma   90.00000000
_symmetry_Int_Tables_number   1
_chemical_formula_structural   Al
_chemical_formula_sum   Al8
_cell_volume   263.54758059
_cell_formula_units_Z   8
loop_
 _symmetry_equiv_pos_site_id
 _symmetry_equiv_pos_as_xyz
  1  'x, y, z'
loop_
 _atom_site_type_symbol
 _atom_site_label
 _atom_site_symmetry_multiplicity
 _atom_site_fract_x
 _atom_site_fract_y
 _atom_site_fract_z
 _atom_site_occupancy
  Al  Al1  1  0.000000  0.000000  0.655823  1
  Al  Al2  1  0.500000  0.500000  0.719154  1
  Al  Al3  1  0.000000  0.000000  0.531272  1
  Al  Al4  1  0.500000  0.500000  0.593548  1
  Al  Al5  1  0.000000  0.000000  0.406452  1
  Al  Al6  1  0.500000  0.500000  0.468728  1
  Al  Al7  1  0.000000  0.000000  0.280846  1
  Al  Al8  1  0.500000  0.500000  0.344177  1
