# generated using pymatgen
data_Al
_symmetry_space_group_name_H-M   'P 1'
_cell_length_a   2.85732600
_cell_length_b   2.85732608
_cell_length_c   41.99394300
_cell_angle_alpha   90.00000000
_cell_angle_beta   90.00000000
_cell_angle_gamma   119.99999903
_symmetry_Int_Tables_number   1
_chemical_formula_structural   Al
_chemical_formula_sum   Al9
_cell_volume   296.91824796
_cell_formula_units_Z   9
loop_
 _symmetry_equiv_pos_site_id
 _symmetry_equiv_pos_as_xyz
  1  'x, y, z'
loop_
 _atom_site_type_symbol
 _atom_site_label
 _atom_site_symmetry_multiplicity
 _atom_site_fract_x
 _atom_site_fract_y
 _atom_site_fract_z
 _atom_site_occupancy
  Al  Al1  1  0.666667  0.333333  0.333551  1
  Al  Al2  1  0.333333  0.666667  0.277630  1
  Al  Al3  1  0.000000  0.000000  0.388778  1
  Al  Al4  1  0.666667  0.333333  0.500000  1
  Al  Al5  1  0.333333  0.666667  0.444452  1
  Al  Al6  1  0.000000  0.000000  0.555548  1
  Al  Al7  1  0.666667  0.333333  0.666449  1
  Al  Al8  1  0.333333  0.666667  0.611222  1
  Al  Al9  1  0.000000  0.000000  0.722370  1
