# generated using pymatgen
data_SiO2
_symmetry_space_group_name_H-M   'P 1'
_cell_length_a   5.02150261
_cell_length_b   5.02150261
_cell_length_c   5.51057000
_cell_angle_alpha   90.00000000
_cell_angle_beta   90.00000000
_cell_angle_gamma   120.00000000
_symmetry_Int_Tables_number   1
_chemical_formula_structural   SiO2
_chemical_formula_sum   'Si3 O6'
_cell_volume   120.33571438
_cell_formula_units_Z   3
loop_
 _symmetry_equiv_pos_site_id
 _symmetry_equiv_pos_as_xyz
  1  'x, y, z'
loop_
 _atom_site_type_symbol
 _atom_site_label
 _atom_site_symmetry_multiplicity
 _atom_site_fract_x
 _atom_site_fract_y
 _atom_site_fract_z
 _atom_site_occupancy
  Si  Si0  1  0.52369500  0.52369500  0.00000000  1
  Si  Si1  1  0.00000000  0.47630500  0.66666667  1
  Si  Si2  1  0.47630500  0.00000000  0.33333333  1
  O  O3  1  0.25609400  0.41485400  0.79454300  1
  O  O4  1  0.58514600  0.84124000  0.12787633  1
  O  O5  1  0.15876000  0.74390600  0.46120967  1
  O  O6  1  0.41485400  0.25609400  0.20545700  1
  O  O7  1  0.74390600  0.15876000  0.53879033  1
  O  O8  1  0.84124000  0.58514600  0.87212367  1
