# generated using pymatgen
data_SiGe
_symmetry_space_group_name_H-M   'P 1'
_cell_length_a   3.94061831
_cell_length_b   3.94061831
_cell_length_c   6.50873100
_cell_angle_alpha   90.00000000
_cell_angle_beta   90.00000000
_cell_angle_gamma   120.00000000
_symmetry_Int_Tables_number   1
_chemical_formula_structural   SiGe
_chemical_formula_sum   'Si2 Ge2'
_cell_volume   87.52975150
_cell_formula_units_Z   2
loop_
 _symmetry_equiv_pos_site_id
 _symmetry_equiv_pos_as_xyz
  1  'x, y, z'
loop_
 _atom_site_type_symbol
 _atom_site_label
 _atom_site_symmetry_multiplicity
 _atom_site_fract_x
 _atom_site_fract_y
 _atom_site_fract_z
 _atom_site_occupancy
  Si  Si0  1  0.33333333  0.66666667  0.37456000  1
  Si  Si1  1  0.66666667  0.33333333  0.87456000  1
  Ge  Ge2  1  0.33333333  0.66666667  0.00043900  1
  Ge  Ge3  1  0.66666667  0.33333333  0.50043900  1
