# generated using pymatgen
data_Li2S
_symmetry_space_group_name_H-M   'P 1'
_cell_length_a   5.72136200
_cell_length_b   5.72136200
_cell_length_c   5.72136200
_cell_angle_alpha   90.00000000
_cell_angle_beta   90.00000000
_cell_angle_gamma   90.00000000
_symmetry_Int_Tables_number   1
_chemical_formula_structural   Li2S
_chemical_formula_sum   'Li8 S4'
_cell_volume   187.28296722
_cell_formula_units_Z   4
loop_
 _symmetry_equiv_pos_site_id
 _symmetry_equiv_pos_as_xyz
  1  'x, y, z'
loop_
 _atom_site_type_symbol
 _atom_site_label
 _atom_site_symmetry_multiplicity
 _atom_site_fract_x
 _atom_site_fract_y
 _atom_site_fract_z
 _atom_site_occupancy
  Li  Li0  1  0.25000000  0.75000000  0.75000000  1
  Li  Li1  1  0.25000000  0.25000000  0.75000000  1
  Li  Li2  1  0.25000000  0.25000000  0.25000000  1
  Li  Li3  1  0.25000000  0.75000000  0.25000000  1
  Li  Li4  1  0.75000000  0.75000000  0.25000000  1
  Li  Li5  1  0.75000000  0.25000000  0.25000000  1
  Li  Li6  1  0.75000000  0.25000000  0.75000000  1
  Li  Li7  1  0.75000000  0.75000000  0.75000000  1
  S  S8  1  0.00000000  0.00000000  0.00000000  1
  S  S9  1  0.00000000  0.50000000  0.50000000  1
  S  S10  1  0.50000000  0.00000000  0.50000000  1
  S  S11  1  0.50000000  0.50000000  0.00000000  1
