# generated using pymatgen
data_LiMn2O4
_symmetry_space_group_name_H-M   'P 1'
_cell_length_a   8.42247400
_cell_length_b   8.42247400
_cell_length_c   8.42247400
_cell_angle_alpha   90.00000000
_cell_angle_beta   90.00000000
_cell_angle_gamma   90.00000000
_symmetry_Int_Tables_number   1
_chemical_formula_structural   LiMn2O4
_chemical_formula_sum   'Li8 Mn16 O32'
_cell_volume   597.47403570
_cell_formula_units_Z   8
loop_
 _symmetry_equiv_pos_site_id
 _symmetry_equiv_pos_as_xyz
  1  'x, y, z'
loop_
 _atom_site_type_symbol
 _atom_site_label
 _atom_site_symmetry_multiplicity
 _atom_site_fract_x
 _atom_site_fract_y
 _atom_site_fract_z
 _atom_site_occupancy
  Li  Li0  1  0.50000000  0.00000000  0.50000000  1
  Li  Li1  1  0.25000000  0.25000000  0.25000000  1
  Li  Li2  1  0.50000000  0.50000000  0.00000000  1
  Li  Li3  1  0.25000000  0.75000000  0.75000000  1
  Li  Li4  1  0.00000000  0.00000000  0.00000000  1
  Li  Li5  1  0.75000000  0.25000000  0.75000000  1
  Li  Li6  1  0.00000000  0.50000000  0.50000000  1
  Li  Li7  1  0.75000000  0.75000000  0.25000000  1
  Mn  Mn8  1  0.12500000  0.87500000  0.37500000  1
  Mn  Mn9  1  0.37500000  0.62500000  0.37500000  1
  Mn  Mn10  1  0.37500000  0.87500000  0.12500000  1
  Mn  Mn11  1  0.12500000  0.62500000  0.12500000  1
  Mn  Mn12  1  0.12500000  0.37500000  0.87500000  1
  Mn  Mn13  1  0.37500000  0.12500000  0.87500000  1
  Mn  Mn14  1  0.37500000  0.37500000  0.62500000  1
  Mn  Mn15  1  0.12500000  0.12500000  0.62500000  1
  Mn  Mn16  1  0.62500000  0.87500000  0.87500000  1
  Mn  Mn17  1  0.87500000  0.62500000  0.87500000  1
  Mn  Mn18  1  0.87500000  0.87500000  0.62500000  1
  Mn  Mn19  1  0.62500000  0.62500000  0.62500000  1
  Mn  Mn20  1  0.62500000  0.37500000  0.37500000  1
  Mn  Mn21  1  0.87500000  0.12500000  0.37500000  1
  Mn  Mn22  1  0.87500000  0.37500000  0.12500000  1
  Mn  Mn23  1  0.62500000  0.12500000  0.12500000  1
  O  O24  1  0.86185867  0.13814133  0.13814133  1
  O  O25  1  0.13814133  0.86185867  0.13814133  1
  O  O26  1  0.63814133  0.13814133  0.36185867  1
  O  O27  1  0.36185867  0.86185867  0.36185867  1
  O  O28  1  0.38814133  0.11185867  0.11185867  1
  O  O29  1  0.11185867  0.38814133  0.11185867  1
  O  O30  1  0.11185867  0.11185867  0.38814133  1
  O  O31  1  0.38814133  0.38814133  0.38814133  1
  O  O32  1  0.86185867  0.63814133  0.63814133  1
  O  O33  1  0.13814133  0.36185867  0.63814133  1
  O  O34  1  0.63814133  0.63814133  0.86185867  1
  O  O35  1  0.36185867  0.36185867  0.86185867  1
  O  O36  1  0.38814133  0.61185867  0.61185867  1
  O  O37  1  0.11185867  0.88814133  0.61185867  1
  O  O38  1  0.11185867  0.61185867  0.88814133  1
  O  O39  1  0.38814133  0.88814133  0.88814133  1
  O  O40  1  0.36185867  0.13814133  0.63814133  1
  O  O41  1  0.63814133  0.86185867  0.63814133  1
  O  O42  1  0.13814133  0.13814133  0.86185867  1
  O  O43  1  0.86185867  0.86185867  0.86185867  1
  O  O44  1  0.88814133  0.11185867  0.61185867  1
  O  O45  1  0.61185867  0.38814133  0.61185867  1
  O  O46  1  0.61185867  0.11185867  0.88814133  1
  O  O47  1  0.88814133  0.38814133  0.88814133  1
  O  O48  1  0.36185867  0.63814133  0.13814133  1
  O  O49  1  0.63814133  0.36185867  0.13814133  1
  O  O50  1  0.13814133  0.63814133  0.36185867  1
  O  O51  1  0.86185867  0.36185867  0.36185867  1
  O  O52  1  0.88814133  0.61185867  0.11185867  1
  O  O53  1  0.61185867  0.88814133  0.11185867  1
  O  O54  1  0.61185867  0.61185867  0.38814133  1
  O  O55  1  0.88814133  0.88814133  0.38814133  1
